sectionalized/no_load/80pc/TNB_DUMA_EXP_SEQVOLTAGES.CSV
Bus,  V1,  p.u.,Base kV, V2, %V2/V1, V0, %V0/V1, Vresidual, %NEMA
"PPU_DUMA_33KV",    19050.6,    0.9999,    33.00, 2.56499E-005, 1.346E-007, 1.23938E-006, 6.506E-009, 3.71815E-006, 1.014E-007
"PPU_DUMA_11KV_A",    6320.04,   0.99515,    11.00, 9.27297E-006, 1.467E-007, 1.26855E-007, 2.007E-009, 3.80564E-007, 1.01E-007
"PPU_DUMA_11KV_B",    6240.76,   0.98266,    11.00, 3.76569E-005, 6.034E-007, 0.000397246, 6.365E-006, 0.00119174, 5.57E-007
"RPPLNGI2",    6370.58,    1.0031,    11.00, 3.7691E-005, 5.916E-007, 0.000406701, 6.384E-006,  0.0012201, 5.457E-007
"PDTJLNMASJID",    6468.49,    1.0185,    11.00, 3.77229E-005, 5.832E-007, 0.000413843, 6.398E-006, 0.00124153, 5.375E-007
"BELLA",    6533.99,    1.0288,    11.00, 3.7747E-005, 5.777E-007, 0.000418627, 6.407E-006, 0.00125588, 5.321E-007
"PSTPDGN",    6566.81,     1.034,    11.00, 3.776E-005, 5.75E-007, 0.000421027, 6.411E-006, 0.00126308, 5.295E-007
"ATRIA_1",    6418.01,    1.0106,    11.00, 3.76725E-005, 5.87E-007, 0.000409871, 6.386E-006, 0.00122961, 5.412E-007
"HAWKER",    6448.14,    1.0153,    11.00, 3.75761E-005, 5.827E-007, 0.000415097, 6.437E-006, 0.00124529, 5.372E-007
"DUMA7",     6288.6,    0.9902,    11.00, 4.29738E-005, 6.834E-007, 0.000408029, 6.488E-006, 0.00122409, 6.372E-007
"HAUS",    6384.42,    1.0053,    11.00, 5.14429E-005, 8.058E-007, 0.00207922, 3.257E-005, 0.00623767, 7.299E-007
"DUMA6",    6644.12,    1.0462,    11.00, 9.04791E-005, 1.362E-006, 0.00906612, 0.0001365,  0.0271984, 1.238E-006
"DUMA13",    6878.27,     1.083,    11.00, 0.000136808, 1.989E-006,  0.0165837, 0.0002411,  0.0497511, 1.913E-006
"SSU_DUMA5_IM2",    6909.47,     1.088,    11.00, 0.000145061, 2.099E-006,   0.016679, 0.0002414,   0.050037, 2.019E-006
"PDTLITRAK",    6547.57,     1.031,    11.00, 3.74559E-005, 5.721E-007, 0.000428878, 6.55E-006, 0.00128664, 5.267E-007
"DUMA12",    6672.89,    1.0507,    11.00, 3.73465E-005, 5.597E-007, 0.00044226, 6.628E-006, 0.00132678, 5.144E-007
"TMNGH4",    6791.22,    1.0693,    11.00, 3.72173E-005, 5.48E-007, 0.000585165, 8.616E-006, 0.00175549, 5.027E-007
"SSU_TMEGAH3_IR1",    6838.49,    1.0768,    11.00, 3.71552E-005, 5.433E-007, 0.000644525, 9.425E-006, 0.00193358, 4.98E-007
"TMNGH2",    6858.95,      1.08,    11.00, 3.7126E-005, 5.413E-007, 0.000670764, 9.779E-006, 0.00201229, 4.959E-007
"SSU_UPTWRES_IM2",    6291.19,   0.99061,    11.00, 3.76222E-005, 5.98E-007, 0.00044118, 7.013E-006, 0.00132354, 5.518E-007
"MAYBANK",    6358.71,    1.0012,    11.00, 3.75899E-005, 5.912E-007, 0.000446325, 7.019E-006, 0.00133898, 5.452E-007
"DUMA8",    6371.42,    1.0032,    11.00, 3.75897E-005, 5.9E-007, 0.00045661, 7.167E-006, 0.00136983, 5.441E-007
"DUMA9",    6462.86,    1.0176,    11.00, 3.77329E-005, 5.838E-007, 0.000413714, 6.401E-006, 0.00124114, 5.381E-007
"DUMA1",    6554.13,     1.032,    11.00, 3.77695E-005, 5.763E-007, 0.000420442, 6.415E-006, 0.00126133, 5.308E-007
"ELITE",    6586.85,    1.0372,    11.00, 3.77835E-005, 5.736E-007, 0.000422852, 6.42E-006, 0.00126856, 5.282E-007
"PAMDRA",    6333.39,   0.99725,    11.00, 9.29072E-006, 1.467E-007, 1.27345E-007, 2.011E-009, 3.82035E-007, 1.009E-007
"DUMA4",    6378.37,    1.0043,    11.00, 9.35161E-006, 1.466E-007, 1.70768E-007, 2.677E-009, 5.12302E-007, 1.008E-007
"PLSDRA",     6478.1,      1.02,    11.00, 9.48925E-006, 1.465E-007, 3.29147E-007, 5.081E-009, 9.87439E-007, 1.007E-007
"PRMTE",    6438.69,    1.0138,    11.00, 9.4316E-006, 1.465E-007, 2.85424E-007, 4.433E-009, 8.56269E-007, 1.007E-007
"PRMTA",     6458.7,     1.017,    11.00, 9.45858E-006, 1.464E-007, 2.88806E-007, 4.472E-009, 8.66415E-007, 1.007E-007
"PMONTB",    6474.54,    1.0195,    11.00, 9.48037E-006, 1.464E-007, 3.15709E-007, 4.876E-009, 9.47123E-007, 1.007E-007
"PLNGI_B",    6387.02,    1.0057,    11.00, 9.36072E-006, 1.466E-007, 1.29263E-007, 2.024E-009, 3.87789E-007, 1.008E-007
"PLNGI_D",    6420.59,     1.011,    11.00, 9.40484E-006, 1.465E-007, 1.30778E-007, 2.037E-009, 3.92333E-007, 1.007E-007
"SPRK9",    6606.81,    1.0403,    11.00, 9.66638E-006, 1.463E-007, 1.4604E-007, 2.21E-009, 4.38121E-007, 1.005E-007
"BOMBA",    6623.06,    1.0429,    11.00, 9.68927E-006, 1.463E-007, 1.59478E-007, 2.408E-009, 4.78433E-007, 1.005E-007
"SPRK8",    6663.55,    1.0492,    11.00, 9.74667E-006, 1.463E-007, 2.06953E-007, 3.106E-009, 6.20857E-007, 1.005E-007
"SSU_DSARCNTR_IR1",    6353.95,    1.0005,    11.00, 9.31698E-006, 1.466E-007, 1.27895E-007, 2.013E-009, 3.83684E-007, 1.009E-007
"DUMA10",    6478.26,    1.0201,    11.00, 9.48329E-006, 1.464E-007, 1.34317E-007, 2.073E-009, 4.02952E-007, 1.006E-007
"BALAIPOLIS",    6479.93,    1.0203,    11.00, 9.4855E-006, 1.464E-007, 1.34417E-007, 2.074E-009, 4.0325E-007, 1.006E-007
"SSU_UPTWRES_IR1",    6494.71,    1.0227,    11.00, 9.51183E-006, 1.465E-007, 3.32064E-007, 5.113E-009, 9.9619E-007, 1.007E-007
"PPU_DUMA_VCB1",          0,         0,    33.00,          0,        0,          0,        0,          0,        0
